<?xml version="1.0" encoding="UTF-8"?>

<!-- generated on 2024-09-22 03:39:01 by Eclipse SUMO duarouter Version 1.18.0
<configuration xmlns:xsi="http://www.w3.org/2001/XMLSchema-instance" xsi:noNamespaceSchemaLocation="http://sumo.dlr.de/xsd/duarouterConfiguration.xsd">

    <input>
        <net-file value="city1.net.xml"/>
        <route-files value="trips.trips.xml"/>
    </input>

    <output>
        <output-file value="city1.rou.xml"/>
    </output>

    <time>
        <begin value="0"/>
        <end value="500"/>
    </time>

    <report>
        <no-warnings value="true"/>
        <ignore-errors value="true"/>
        <no-step-log value="true"/>
    </report>

</configuration>
-->

<routes xmlns:xsi="http://www.w3.org/2001/XMLSchema-instance" xsi:noNamespaceSchemaLocation="http://sumo.dlr.de/xsd/routes_file.xsd">
    <vehicle id="0" depart="0.00">
        <route edges="gneE18 -gneE22 -gneE7 -gneE6 -gneE2 -gneE1"/>
    </vehicle>
    <vehicle id="2" depart="3.20">
        <route edges="gneE24 -gneE25 -gneE13 -gneE12 -gneE5 gneE6 gneE7 gneE23"/>
    </vehicle>
    <vehicle id="4" depart="6.40">
        <route edges="-gneE5 -gneE2 -gneE1"/>
    </vehicle>
    <vehicle id="5" depart="8.00">
        <route edges="-gneE25 -gneE13 -gneE12 -gneE5 -gneE4 -gneE3 gneE1"/>
    </vehicle>
    <vehicle id="6" depart="9.60">
        <route edges="-gneE10 gneE9 -gneE8 gneE2 gneE6 gneE7 -gneE21"/>
    </vehicle>
    <vehicle id="7" depart="11.20">
        <route edges="gneE19 -gneE8 gneE2 gneE5 gneE12 gneE11"/>
    </vehicle>
    <vehicle id="8" depart="12.80">
        <route edges="-gneE26 -gneE25 -gneE13 gneE14"/>
    </vehicle>
    <vehicle id="9" depart="14.40">
        <route edges="gneE3 gneE4 -gneE2 -gneE1 -gneE0"/>
    </vehicle>
    <vehicle id="10" depart="16.00">
        <route edges="gneE3 gneE4 gneE6 gneE7 gneE22 gneE24"/>
    </vehicle>
    <vehicle id="11" depart="17.60">
        <route edges="-gneE32 -gneE31 -gneE23 -gneE7 -gneE6 -gneE2 gneE8 -gneE19"/>
    </vehicle>
    <vehicle id="13" depart="20.80">
        <route edges="-gneE14"/>
    </vehicle>
    <vehicle id="15" depart="24.00">
        <route edges="gneE3 gneE4 gneE5 gneE12 gneE13 gneE25 gneE26"/>
    </vehicle>
    <vehicle id="16" depart="25.60">
        <route edges="gneE10 -gneE11 -gneE12 -gneE5 -gneE2 gneE8"/>
    </vehicle>
    <vehicle id="17" depart="27.20">
        <route edges="-gneE36 -gneE34 gneE4 gneE5 gneE12"/>
    </vehicle>
    <vehicle id="19" depart="30.40">
        <route edges="gneE35 -gneE34 gneE4 gneE5 gneE12 gneE13"/>
    </vehicle>
    <vehicle id="20" depart="32.00">
        <route edges="gneE22 gneE24 -gneE25 -gneE13 gneE11 -gneE10"/>
    </vehicle>
    <vehicle id="24" depart="38.40">
        <route edges="gneE18 -gneE22 -gneE7 -gneE6 -gneE4 gneE34 -gneE35"/>
    </vehicle>
    <vehicle id="25" depart="40.00">
        <route edges="-gneE34 gneE4 gneE5 gneE17 gneE18 -gneE22"/>
    </vehicle>
    <vehicle id="26" depart="41.60">
        <route edges="-gneE29 -gneE28 gneE21 -gneE7 -gneE6 gneE5"/>
    </vehicle>
    <vehicle id="27" depart="43.20">
        <route edges="gneE19 -gneE9 gneE10 -gneE11 -gneE12 gneE17"/>
    </vehicle>
    <vehicle id="28" depart="44.80">
        <route edges="-gneE22 -gneE7 -gneE6 gneE5 gneE12 gneE13 gneE25 gneE26"/>
    </vehicle>
    <vehicle id="29" depart="46.40">
        <route edges="-gneE22 -gneE7 -gneE6 gneE5 gneE12 gneE14 -gneE38"/>
    </vehicle>
    <vehicle id="30" depart="48.00">
        <route edges="gneE9 -gneE8 gneE2"/>
    </vehicle>
    <vehicle id="31" depart="49.60">
        <route edges="gneE11 -gneE10 gneE9 -gneE8 gneE2 gneE6 gneE7 gneE23"/>
    </vehicle>
    <vehicle id="33" depart="52.80">
        <route edges="-gneE26 -gneE25 -gneE13 gneE11 -gneE10"/>
    </vehicle>
    <vehicle id="35" depart="56.00">
        <route edges="-gneE25 -gneE13 -gneE12 -gneE5 gneE6"/>
    </vehicle>
    <vehicle id="38" depart="60.80">
        <route edges="gneE4 gneE5 gneE17 gneE18 -gneE22 -gneE7"/>
    </vehicle>
    <vehicle id="39" depart="62.40">
        <route edges="-gneE28 gneE21 -gneE7 -gneE6 gneE5 gneE12 gneE13 gneE25 -gneE24"/>
    </vehicle>
    <vehicle id="40" depart="64.00">
        <route edges="gneE11 -gneE10 gneE9 -gneE8 gneE2 gneE6 gneE7 gneE22 gneE24 -gneE25"/>
    </vehicle>
    <vehicle id="41" depart="65.60">
        <route edges="gneE13 gneE25 -gneE24 -gneE22 -gneE7 -gneE6 -gneE2 -gneE1 gneE3 gneE4"/>
    </vehicle>
    <vehicle id="43" depart="68.80">
        <route edges="gneE9 -gneE8 gneE2 -gneE4 -gneE3 gneE1"/>
    </vehicle>
    <vehicle id="44" depart="70.40">
        <route edges="-gneE14 -gneE12 -gneE5 -gneE2 gneE8 -gneE9 gneE10 -gneE11"/>
    </vehicle>
    <vehicle id="45" depart="72.00">
        <route edges="-gneE18 -gneE17 gneE12 gneE11 -gneE10 gneE9 -gneE8 gneE2"/>
    </vehicle>
    <vehicle id="47" depart="75.20">
        <route edges="-gneE13 gneE14 -gneE38"/>
    </vehicle>
    <vehicle id="48" depart="76.80">
        <route edges="gneE9 -gneE8 -gneE1 gneE3 gneE4 -gneE2 gneE8 -gneE9 gneE10"/>
    </vehicle>
    <vehicle id="49" depart="78.40">
        <route edges="gneE8 -gneE9 gneE10 -gneE11 -gneE12 -gneE5 -gneE4 gneE34"/>
    </vehicle>
    <vehicle id="50" depart="80.00">
        <route edges="-gneE1 gneE3 gneE4 gneE5 gneE12 gneE13 gneE25 gneE26"/>
    </vehicle>
    <vehicle id="51" depart="81.60">
        <route edges="gneE20 gneE2 gneE5 gneE12 gneE11"/>
    </vehicle>
    <vehicle id="52" depart="83.20">
        <route edges="-gneE29 -gneE28 gneE21"/>
    </vehicle>
    <vehicle id="53" depart="84.80">
        <route edges="-gneE18 -gneE17 -gneE5"/>
    </vehicle>
    <vehicle id="54" depart="86.40">
        <route edges="-gneE7 -gneE6 -gneE2 -gneE1 gneE3 gneE4 gneE6 gneE7"/>
    </vehicle>
    <vehicle id="55" depart="88.00">
        <route edges="gneE38 -gneE14 -gneE12 gneE17 gneE18 gneE24 -gneE25"/>
    </vehicle>
    <vehicle id="56" depart="89.60">
        <route edges="gneE0 gneE1 -gneE20"/>
    </vehicle>
    <vehicle id="57" depart="91.20">
        <route edges="gneE4 -gneE2 -gneE1 gneE3 gneE34"/>
    </vehicle>
    <vehicle id="58" depart="92.80">
        <route edges="-gneE30 -gneE26 -gneE25 -gneE13 gneE11 -gneE10 gneE9 -gneE8 gneE2"/>
    </vehicle>
    <vehicle id="60" depart="96.00">
        <route edges="gneE25 -gneE24 -gneE18 -gneE17 gneE12 gneE11"/>
    </vehicle>
    <vehicle id="63" depart="100.80">
        <route edges="-gneE10 gneE9 -gneE8 gneE2 gneE5"/>
    </vehicle>
    <vehicle id="64" depart="102.40">
        <route edges="gneE38 -gneE14 -gneE12 -gneE5 gneE6 gneE7 gneE23 gneE31 gneE32"/>
    </vehicle>
    <vehicle id="65" depart="104.00">
        <route edges="-gneE30 -gneE26 -gneE25 -gneE13 -gneE12 -gneE5 -gneE2 gneE8 -gneE9 gneE10 -gneE11"/>
    </vehicle>
    <vehicle id="66" depart="105.60">
        <route edges="gneE38 -gneE14 -gneE12 -gneE5 gneE6"/>
    </vehicle>
    <vehicle id="67" depart="107.20">
        <route edges="-gneE14 -gneE12 -gneE5 -gneE2 gneE8 -gneE9"/>
    </vehicle>
    <vehicle id="68" depart="108.80">
        <route edges="-gneE13 -gneE12 -gneE5 gneE6 gneE7 -gneE21 gneE28"/>
    </vehicle>
    <vehicle id="70" depart="112.00">
        <route edges="-gneE8 gneE2 gneE5 gneE12"/>
    </vehicle>
    <vehicle id="71" depart="113.60">
        <route edges="-gneE28 gneE21 -gneE7 -gneE6 -gneE4 gneE34"/>
    </vehicle>
    <vehicle id="72" depart="115.20">
        <route edges="-gneE5 gneE6 gneE7 gneE22 gneE24 -gneE25 -gneE13 -gneE12 gneE17 gneE18 -gneE22"/>
    </vehicle>
    <vehicle id="73" depart="116.80">
        <route edges="gneE10 -gneE11 gneE13 gneE25 gneE26"/>
    </vehicle>
    <vehicle id="74" depart="118.40">
        <route edges="-gneE24 -gneE22 -gneE7 -gneE6 -gneE4 -gneE3"/>
    </vehicle>
    <vehicle id="76" depart="121.60">
        <route edges="-gneE6 -gneE2 gneE8 -gneE9 gneE10"/>
    </vehicle>
    <vehicle id="78" depart="124.80">
        <route edges="-gneE32 -gneE31 -gneE23 -gneE7 -gneE6 gneE5 gneE12 gneE14"/>
    </vehicle>
    <vehicle id="80" depart="128.00">
        <route edges="-gneE13 gneE11 -gneE10 gneE9 -gneE8 gneE2"/>
    </vehicle>
    <vehicle id="81" depart="129.60">
        <route edges="-gneE26 -gneE25 -gneE13 gneE11 -gneE10 gneE9 -gneE8 -gneE1 gneE3 gneE4"/>
    </vehicle>
    <vehicle id="82" depart="131.20">
        <route edges="gneE35 -gneE34 gneE4 gneE6 gneE7 gneE22 gneE24 -gneE25 -gneE13 -gneE12"/>
    </vehicle>
    <vehicle id="83" depart="132.80">
        <route edges="-gneE27 -gneE25 -gneE13 -gneE12 -gneE5 gneE6 gneE7 gneE22"/>
    </vehicle>
    <vehicle id="84" depart="134.40">
        <route edges="-gneE25 -gneE13 -gneE12 -gneE5 gneE6 gneE7 gneE22 -gneE18"/>
    </vehicle>
    <vehicle id="85" depart="136.00">
        <route edges="gneE5 gneE12 gneE13"/>
    </vehicle>
    <vehicle id="86" depart="137.60">
        <route edges="-gneE8 -gneE1 gneE3"/>
    </vehicle>
    <vehicle id="87" depart="139.20">
        <route edges="gneE3 gneE4 gneE6 gneE7 -gneE21"/>
    </vehicle>
    <vehicle id="88" depart="140.80">
        <route edges="-gneE17 -gneE5"/>
    </vehicle>
    <vehicle id="89" depart="142.40">
        <route edges="-gneE5 gneE6 gneE7 gneE22 gneE24 -gneE25 -gneE13 -gneE12 gneE17 gneE18 -gneE22 -gneE7"/>
    </vehicle>
    <vehicle id="90" depart="144.00">
        <route edges="gneE23"/>
    </vehicle>
    <vehicle id="93" depart="148.80">
        <route edges="gneE35 -gneE34 gneE4 gneE5 gneE12 gneE13 gneE25 -gneE24"/>
    </vehicle>
    <vehicle id="94" depart="150.40">
        <route edges="-gneE24 -gneE22 -gneE7 -gneE6"/>
    </vehicle>
    <vehicle id="96" depart="153.60">
        <route edges="-gneE27 -gneE24 -gneE22 -gneE7 -gneE6 gneE5"/>
    </vehicle>
    <vehicle id="97" depart="155.20">
        <route edges="-gneE6 -gneE4 gneE34"/>
    </vehicle>
    <vehicle id="98" depart="156.80">
        <route edges="gneE11 -gneE10 gneE9 -gneE8 -gneE1 gneE3 gneE4 -gneE2 gneE8 -gneE9 gneE10 -gneE11"/>
    </vehicle>
    <vehicle id="99" depart="158.40">
        <route edges="gneE9 -gneE8 gneE2 gneE6 gneE7 gneE23 gneE31 gneE32"/>
    </vehicle>
    <vehicle id="100" depart="160.00">
        <route edges="gneE8 -gneE9 gneE10 -gneE11 gneE13 gneE25 -gneE24 -gneE22 -gneE7 -gneE6 gneE5"/>
    </vehicle>
    <vehicle id="102" depart="163.20">
        <route edges="-gneE9 gneE10 -gneE11 gneE13 gneE25 -gneE24 -gneE22"/>
    </vehicle>
    <vehicle id="103" depart="164.80">
        <route edges="-gneE4 -gneE3 gneE1 gneE8 -gneE9 gneE10 -gneE11"/>
    </vehicle>
    <vehicle id="104" depart="166.40">
        <route edges="-gneE36 -gneE34 gneE4 gneE5 gneE12 gneE11 -gneE10 gneE9"/>
    </vehicle>
    <vehicle id="105" depart="168.00">
        <route edges="-gneE28 gneE21 -gneE7 -gneE6 -gneE2 -gneE1 gneE3"/>
    </vehicle>
    <vehicle id="106" depart="169.60">
        <route edges="-gneE7 -gneE6 -gneE2 gneE8 -gneE9 gneE10 -gneE11 -gneE12 -gneE5"/>
    </vehicle>
    <vehicle id="107" depart="171.20">
        <route edges="gneE7 gneE22 gneE24 -gneE25 -gneE13 gneE11 -gneE10 gneE9"/>
    </vehicle>
    <vehicle id="108" depart="172.80">
        <route edges="gneE11 -gneE10 gneE9 -gneE8 gneE2 gneE5 gneE12 gneE13 gneE25"/>
    </vehicle>
    <vehicle id="110" depart="176.00">
        <route edges="gneE7 gneE22 gneE24 -gneE25 -gneE13 gneE14"/>
    </vehicle>
    <vehicle id="111" depart="177.60">
        <route edges="gneE10 -gneE11 gneE13 gneE25 gneE27"/>
    </vehicle>
    <vehicle id="112" depart="179.20">
        <route edges="-gneE12 gneE17 gneE18 gneE24 -gneE25 -gneE13 gneE14"/>
    </vehicle>
    <vehicle id="113" depart="180.80">
        <route edges="gneE0 gneE1 gneE2 gneE6 gneE7 gneE23 gneE31 gneE32 gneE33"/>
    </vehicle>
    <vehicle id="114" depart="182.40">
        <route edges="-gneE22 -gneE7 -gneE6 -gneE2 -gneE1 gneE3 gneE4 gneE6 gneE7"/>
    </vehicle>
    <vehicle id="115" depart="184.00">
        <route edges="-gneE14 -gneE12 -gneE5 -gneE2 -gneE20"/>
    </vehicle>
    <vehicle id="117" depart="187.20">
        <route edges="-gneE27 -gneE24 -gneE18 -gneE17"/>
    </vehicle>
    <vehicle id="118" depart="188.80">
        <route edges="gneE38 -gneE14 gneE13 gneE25 -gneE24"/>
    </vehicle>
    <vehicle id="121" depart="193.60">
        <route edges="gneE1 gneE2 gneE5"/>
    </vehicle>
    <vehicle id="122" depart="195.20">
        <route edges="-gneE25 -gneE13 gneE11 -gneE10 gneE9 -gneE8 gneE2 gneE5 gneE12 gneE13 gneE25"/>
    </vehicle>
    <vehicle id="124" depart="198.40">
        <route edges="gneE2 -gneE4 -gneE3"/>
    </vehicle>
    <vehicle id="125" depart="200.00">
        <route edges="-gneE31 -gneE23 -gneE21 gneE28"/>
    </vehicle>
    <vehicle id="126" depart="201.60">
        <route edges="-gneE13 -gneE12 gneE17 gneE18 -gneE22 -gneE7"/>
    </vehicle>
    <vehicle id="127" depart="203.20">
        <route edges="gneE9"/>
    </vehicle>
    <vehicle id="128" depart="204.80">
        <route edges="-gneE13 -gneE12 gneE17 gneE18 -gneE22"/>
    </vehicle>
    <vehicle id="129" depart="206.40">
        <route edges="-gneE28 gneE21 -gneE7 -gneE6 gneE5"/>
    </vehicle>
    <vehicle id="130" depart="208.00">
        <route edges="gneE38 -gneE14 -gneE12 -gneE5 -gneE4 gneE34 gneE36"/>
    </vehicle>
    <vehicle id="131" depart="209.60">
        <route edges="-gneE34 gneE4 -gneE2"/>
    </vehicle>
    <vehicle id="133" depart="212.80">
        <route edges="gneE17 gneE18 gneE24 -gneE25 -gneE13 gneE11 -gneE10 gneE9"/>
    </vehicle>
    <vehicle id="134" depart="214.40">
        <route edges="gneE19 -gneE8 -gneE1 -gneE0"/>
    </vehicle>
    <vehicle id="136" depart="217.60">
        <route edges="gneE2 gneE6"/>
    </vehicle>
    <vehicle id="137" depart="219.20">
        <route edges="-gneE2 -gneE1 gneE3 gneE4 gneE6 gneE7 gneE22 -gneE18 -gneE17"/>
    </vehicle>
    <vehicle id="138" depart="220.80">
        <route edges="-gneE17 gneE12"/>
    </vehicle>
    <vehicle id="139" depart="222.40">
        <route edges="-gneE29 -gneE28 gneE21 -gneE7 -gneE6 gneE5 gneE17"/>
    </vehicle>
    <vehicle id="140" depart="224.00">
        <route edges="gneE22 gneE24 -gneE25 -gneE13 -gneE12 gneE17 gneE18 -gneE22"/>
    </vehicle>
    <vehicle id="141" depart="225.60">
        <route edges="gneE18 gneE24 -gneE25"/>
    </vehicle>
    <vehicle id="142" depart="227.20">
        <route edges="-gneE9 gneE10 -gneE11 -gneE12 -gneE5 -gneE2 -gneE1 gneE3 gneE4"/>
    </vehicle>
    <vehicle id="145" depart="232.00">
        <route edges="-gneE1 gneE3 gneE4 gneE6 gneE7 -gneE21 gneE28 gneE29"/>
    </vehicle>
    <vehicle id="146" depart="233.60">
        <route edges="gneE18 gneE24 -gneE25"/>
    </vehicle>
    <vehicle id="147" depart="235.20">
        <route edges="gneE24 -gneE25 -gneE13 gneE11 -gneE10 gneE9 -gneE8 gneE2 gneE5 gneE12"/>
    </vehicle>
    <vehicle id="148" depart="236.80">
        <route edges="-gneE5 -gneE4 -gneE3 -gneE0"/>
    </vehicle>
    <vehicle id="149" depart="238.40">
        <route edges="-gneE13 -gneE12 -gneE5 -gneE4 gneE34 gneE36"/>
    </vehicle>
    <vehicle id="153" depart="244.80">
        <route edges="-gneE30 -gneE26 -gneE25 -gneE13 gneE11 -gneE10 gneE9 -gneE8 -gneE1 gneE3 gneE4"/>
    </vehicle>
    <vehicle id="160" depart="256.00">
        <route edges="gneE35 -gneE34 gneE4 -gneE2 gneE8"/>
    </vehicle>
    <vehicle id="161" depart="257.60">
        <route edges="gneE3 gneE34 gneE36"/>
    </vehicle>
    <vehicle id="162" depart="259.20">
        <route edges="-gneE10 gneE9 -gneE8 gneE2 gneE6 gneE7 gneE22 gneE24 gneE27"/>
    </vehicle>
    <vehicle id="163" depart="260.80">
        <route edges="-gneE32 -gneE31 -gneE23 -gneE7 -gneE6 gneE5"/>
    </vehicle>
    <vehicle id="164" depart="262.40">
        <route edges="gneE3 gneE34"/>
    </vehicle>
    <vehicle id="167" depart="267.20">
        <route edges="gneE35 -gneE34 gneE4 gneE6 gneE7 gneE23 gneE31 gneE32 gneE33"/>
    </vehicle>
    <vehicle id="168" depart="268.80">
        <route edges="-gneE26 -gneE24 -gneE22 gneE23 gneE31"/>
    </vehicle>
    <vehicle id="169" depart="270.40">
        <route edges="-gneE7 -gneE6 -gneE4 -gneE3"/>
    </vehicle>
    <vehicle id="171" depart="273.60">
        <route edges="-gneE10 gneE9 -gneE8 gneE2 gneE6 gneE7 -gneE21"/>
    </vehicle>
    <vehicle id="172" depart="275.20">
        <route edges="-gneE32 -gneE31 -gneE23 -gneE7 -gneE6 -gneE4 gneE34"/>
    </vehicle>
    <vehicle id="175" depart="280.00">
        <route edges="gneE8 -gneE9 gneE10 -gneE11 -gneE12 gneE17 gneE18 gneE24 -gneE25 -gneE13 gneE11"/>
    </vehicle>
    <vehicle id="176" depart="281.60">
        <route edges="gneE6 gneE7 gneE22 -gneE18 -gneE17"/>
    </vehicle>
    <vehicle id="177" depart="283.20">
        <route edges="gneE8 -gneE9 gneE10 -gneE11 -gneE12 -gneE5 -gneE2 -gneE20"/>
    </vehicle>
    <vehicle id="178" depart="284.80">
        <route edges="gneE7 gneE22 gneE24 -gneE25"/>
    </vehicle>
    <vehicle id="179" depart="286.40">
        <route edges="-gneE17 -gneE5"/>
    </vehicle>
    <vehicle id="182" depart="291.20">
        <route edges="-gneE36 -gneE34 gneE4 gneE5 gneE12 gneE13"/>
    </vehicle>
    <vehicle id="183" depart="292.80">
        <route edges="-gneE28 gneE21 -gneE7 -gneE6 gneE5 gneE12 gneE13 gneE25"/>
    </vehicle>
    <vehicle id="184" depart="294.40">
        <route edges="-gneE1 gneE3 gneE4 gneE5"/>
    </vehicle>
    <vehicle id="185" depart="296.00">
        <route edges="gneE10 -gneE11 gneE13 gneE25 gneE26"/>
    </vehicle>
    <vehicle id="186" depart="297.60">
        <route edges="gneE24 -gneE25 -gneE13 -gneE12 -gneE5 gneE6 gneE7 gneE22"/>
    </vehicle>
    <vehicle id="187" depart="299.20">
        <route edges="-gneE34 gneE4 gneE6 gneE7 gneE22 gneE24 -gneE25 -gneE13 -gneE12"/>
    </vehicle>
    <vehicle id="189" depart="302.40">
        <route edges="-gneE31 -gneE23 gneE22 -gneE18 -gneE17 -gneE5 gneE6 gneE7 gneE23 gneE31 gneE32 gneE33"/>
    </vehicle>
    <vehicle id="191" depart="305.60">
        <route edges="-gneE30 -gneE26 -gneE25 -gneE13 -gneE12 -gneE5 -gneE4"/>
    </vehicle>
    <vehicle id="193" depart="308.80">
        <route edges="-gneE2 gneE8 -gneE9 gneE10 -gneE11 -gneE12 -gneE5 -gneE4"/>
    </vehicle>
    <vehicle id="194" depart="310.40">
        <route edges="gneE6 gneE7 gneE23"/>
    </vehicle>
    <vehicle id="196" depart="313.60">
        <route edges="-gneE30 -gneE26 -gneE24 -gneE18 -gneE17 gneE12"/>
    </vehicle>
    <vehicle id="198" depart="316.80">
        <route edges="-gneE5 gneE6 gneE7 gneE22 gneE24 -gneE25 -gneE13 gneE14"/>
    </vehicle>
    <vehicle id="199" depart="318.40">
        <route edges="gneE19 -gneE9 gneE10 -gneE11 gneE13 gneE25 -gneE24 -gneE22 -gneE7"/>
    </vehicle>
    <vehicle id="200" depart="320.00">
        <route edges="-gneE6 gneE5 gneE17 gneE18 -gneE22"/>
    </vehicle>
    <vehicle id="201" depart="321.60">
        <route edges="-gneE8 -gneE1 gneE3 gneE4"/>
    </vehicle>
    <vehicle id="203" depart="324.80">
        <route edges="-gneE14 -gneE12 -gneE5 -gneE4 -gneE3 gneE1"/>
    </vehicle>
    <vehicle id="207" depart="331.20">
        <route edges="-gneE24 -gneE22 -gneE7 -gneE6 -gneE2 -gneE1"/>
    </vehicle>
    <vehicle id="208" depart="332.80">
        <route edges="-gneE27 -gneE25 -gneE13 gneE11 -gneE10 gneE9 -gneE8"/>
    </vehicle>
    <vehicle id="211" depart="337.60">
        <route edges="-gneE24 -gneE18 -gneE17 -gneE5 gneE6 gneE7 gneE22 gneE24"/>
    </vehicle>
    <vehicle id="212" depart="339.20">
        <route edges="-gneE9 gneE10 -gneE11 gneE13 gneE25 -gneE24"/>
    </vehicle>
    <vehicle id="213" depart="340.80">
        <route edges="gneE19 -gneE8 -gneE1 -gneE0"/>
    </vehicle>
    <vehicle id="214" depart="342.40">
        <route edges="gneE25 -gneE24 -gneE22 -gneE21 gneE28 gneE29"/>
    </vehicle>
    <vehicle id="215" depart="344.00">
        <route edges="-gneE17 -gneE5"/>
    </vehicle>
    <vehicle id="216" depart="345.60">
        <route edges="-gneE23 gneE22 -gneE18 -gneE17 -gneE5 gneE6 gneE7"/>
    </vehicle>
    <vehicle id="217" depart="347.20">
        <route edges="gneE1 gneE8 -gneE9 gneE10 -gneE11"/>
    </vehicle>
    <vehicle id="218" depart="348.80">
        <route edges="-gneE27 -gneE24 -gneE22 gneE23 gneE31 gneE32 gneE33"/>
    </vehicle>
    <vehicle id="219" depart="350.40">
        <route edges="-gneE7 -gneE6 gneE5 gneE12 gneE13 gneE25 gneE26 gneE30"/>
    </vehicle>
    <vehicle id="220" depart="352.00">
        <route edges="gneE2 gneE5 gneE12 gneE11 -gneE10 gneE9"/>
    </vehicle>
    <vehicle id="226" depart="361.60">
        <route edges="-gneE8 gneE2 gneE6 gneE7 gneE22 gneE24 -gneE25"/>
    </vehicle>
    <vehicle id="227" depart="363.20">
        <route edges="-gneE27 -gneE25 -gneE13 gneE11 -gneE10 gneE9 -gneE8 gneE2"/>
    </vehicle>
    <vehicle id="232" depart="371.20">
        <route edges="gneE10 -gneE11 gneE13 gneE25 -gneE24 -gneE18"/>
    </vehicle>
    <vehicle id="233" depart="372.80">
        <route edges="-gneE26 -gneE25 -gneE13 -gneE12 gneE17 gneE18 gneE24"/>
    </vehicle>
    <vehicle id="234" depart="374.40">
        <route edges="gneE22 gneE24 -gneE25 -gneE13 -gneE12"/>
    </vehicle>
    <vehicle id="238" depart="380.80">
        <route edges="gneE13 gneE25 -gneE24 -gneE18 -gneE17 -gneE5 gneE6 gneE7 gneE22 gneE24"/>
    </vehicle>
    <vehicle id="240" depart="384.00">
        <route edges="-gneE36 -gneE34 -gneE3 -gneE0"/>
    </vehicle>
    <vehicle id="241" depart="385.60">
        <route edges="-gneE33 -gneE32 -gneE31 -gneE23 -gneE21 gneE28"/>
    </vehicle>
    <vehicle id="244" depart="390.40">
        <route edges="gneE10 -gneE11 -gneE12 gneE17"/>
    </vehicle>
    <vehicle id="246" depart="393.60">
        <route edges="-gneE5 -gneE2 -gneE1"/>
    </vehicle>
    <vehicle id="247" depart="395.20">
        <route edges="-gneE32 -gneE31 -gneE23 gneE22 -gneE18 -gneE17 -gneE5 gneE6 gneE7 gneE23"/>
    </vehicle>
    <vehicle id="248" depart="396.80">
        <route edges="-gneE4 -gneE3 gneE1 gneE8 -gneE9 gneE10 -gneE11 -gneE12 -gneE5 -gneE2"/>
    </vehicle>
    <vehicle id="249" depart="398.40">
        <route edges="-gneE7 -gneE6 gneE5 gneE12 gneE13 gneE25 -gneE24 -gneE18"/>
    </vehicle>
    <vehicle id="250" depart="400.00">
        <route edges="gneE17 gneE18 -gneE22 -gneE7 -gneE6 -gneE2 -gneE1"/>
    </vehicle>
    <vehicle id="251" depart="401.60">
        <route edges="-gneE4 -gneE3 gneE1 gneE8 -gneE9 gneE10 -gneE11 gneE13"/>
    </vehicle>
    <vehicle id="253" depart="404.80">
        <route edges="-gneE2 gneE8 -gneE9 gneE10 -gneE11 gneE13 gneE25 -gneE24 -gneE22 -gneE7"/>
    </vehicle>
    <vehicle id="254" depart="406.40">
        <route edges="-gneE12 gneE17 gneE18 gneE24 -gneE25 -gneE13 gneE14 -gneE38"/>
    </vehicle>
    <vehicle id="256" depart="409.60">
        <route edges="gneE25 -gneE24 -gneE18 -gneE17 gneE12 gneE14 -gneE38"/>
    </vehicle>
    <vehicle id="257" depart="411.20">
        <route edges="gneE25 -gneE24 -gneE22 gneE23 gneE31 gneE32"/>
    </vehicle>
    <vehicle id="258" depart="412.80">
        <route edges="-gneE28 gneE21 gneE22 gneE24 -gneE25 -gneE13"/>
    </vehicle>
    <vehicle id="259" depart="414.40">
        <route edges="-gneE10 gneE9 -gneE8 gneE2 gneE5 gneE12 gneE11"/>
    </vehicle>
    <vehicle id="261" depart="417.60">
        <route edges="gneE19 -gneE8 gneE2 gneE6 gneE7 -gneE21 gneE28 gneE29"/>
    </vehicle>
    <vehicle id="262" depart="419.20">
        <route edges="gneE19 -gneE8 gneE2 gneE6 gneE7 -gneE21 gneE28"/>
    </vehicle>
    <vehicle id="263" depart="420.80">
        <route edges="gneE6 gneE7 -gneE21"/>
    </vehicle>
    <vehicle id="264" depart="422.40">
        <route edges="-gneE10 gneE9 -gneE19"/>
    </vehicle>
    <vehicle id="265" depart="424.00">
        <route edges="-gneE2 -gneE1 gneE3 gneE4 gneE6 gneE7 gneE22"/>
    </vehicle>
    <vehicle id="266" depart="425.60">
        <route edges="gneE12 gneE13 gneE25 -gneE24 -gneE22"/>
    </vehicle>
    <vehicle id="267" depart="427.20">
        <route edges="gneE21 gneE22 -gneE18 -gneE17 -gneE5 gneE6 gneE7 -gneE21 gneE28 gneE29"/>
    </vehicle>
    <vehicle id="268" depart="428.80">
        <route edges="-gneE22 -gneE7 -gneE6 gneE5 gneE17"/>
    </vehicle>
    <vehicle id="269" depart="430.40">
        <route edges="gneE24 -gneE25 -gneE13 -gneE12 -gneE5 gneE6 gneE7 gneE22 -gneE18 -gneE17"/>
    </vehicle>
    <vehicle id="271" depart="433.60">
        <route edges="-gneE17 -gneE5 -gneE2 -gneE1"/>
    </vehicle>
    <vehicle id="272" depart="435.20">
        <route edges="-gneE30 -gneE26 -gneE24 -gneE22 gneE23"/>
    </vehicle>
    <vehicle id="274" depart="438.40">
        <route edges="gneE22 gneE24 -gneE25 -gneE13 -gneE12"/>
    </vehicle>
    <vehicle id="275" depart="440.00">
        <route edges="gneE21 -gneE7 -gneE6 -gneE4 -gneE3 gneE1 gneE2"/>
    </vehicle>
    <vehicle id="276" depart="441.60">
        <route edges="-gneE17 -gneE5 gneE6 gneE7 -gneE21 gneE28 gneE29"/>
    </vehicle>
    <vehicle id="278" depart="444.80">
        <route edges="-gneE18 -gneE17 -gneE5 -gneE2 gneE8"/>
    </vehicle>
    <vehicle id="280" depart="448.00">
        <route edges="-gneE5 -gneE4 gneE34 -gneE35"/>
    </vehicle>
    <vehicle id="283" depart="452.80">
        <route edges="-gneE17 -gneE5 gneE6 gneE7"/>
    </vehicle>
    <vehicle id="284" depart="454.40">
        <route edges="gneE18 -gneE22 gneE23 gneE31 gneE32"/>
    </vehicle>
    <vehicle id="285" depart="456.00">
        <route edges="gneE22 -gneE18 -gneE17 -gneE5"/>
    </vehicle>
    <vehicle id="287" depart="459.20">
        <route edges="-gneE29 -gneE28 gneE21 gneE22 gneE24 gneE26 gneE30"/>
    </vehicle>
    <vehicle id="288" depart="460.80">
        <route edges="gneE10 -gneE11 -gneE12 gneE17 gneE18 gneE24 -gneE25 -gneE13 gneE11 -gneE10 gneE9 -gneE8"/>
    </vehicle>
    <vehicle id="289" depart="462.40">
        <route edges="-gneE5 gneE6 gneE7 gneE22 gneE24 gneE26"/>
    </vehicle>
    <vehicle id="290" depart="464.00">
        <route edges="-gneE29 -gneE28 gneE21 gneE23 gneE31 gneE32 gneE33"/>
    </vehicle>
    <vehicle id="292" depart="467.20">
        <route edges="gneE38 -gneE14 gneE13 gneE25 -gneE24"/>
    </vehicle>
    <vehicle id="293" depart="468.80">
        <route edges="-gneE7 -gneE6 gneE5 gneE17 gneE18"/>
    </vehicle>
    <vehicle id="294" depart="470.40">
        <route edges="-gneE36 -gneE34 gneE4 -gneE2 -gneE1"/>
    </vehicle>
    <vehicle id="296" depart="473.60">
        <route edges="-gneE25 -gneE13 -gneE12 gneE17 gneE18 gneE24 gneE26 gneE30"/>
    </vehicle>
    <vehicle id="297" depart="475.20">
        <route edges="-gneE32 -gneE31 -gneE23 -gneE7 -gneE6 -gneE4 gneE34 gneE36"/>
    </vehicle>
    <vehicle id="299" depart="478.40">
        <route edges="-gneE1 gneE3 gneE4 gneE6"/>
    </vehicle>
    <vehicle id="300" depart="480.00">
        <route edges="-gneE14 gneE13 gneE25 gneE26"/>
    </vehicle>
    <vehicle id="301" depart="481.60">
        <route edges="-gneE9 gneE10 -gneE11 gneE13 gneE25 -gneE24 -gneE22 -gneE21 gneE28"/>
    </vehicle>
    <vehicle id="302" depart="483.20">
        <route edges="gneE21"/>
    </vehicle>
    <vehicle id="303" depart="484.80">
        <route edges="-gneE9 gneE10 -gneE11 -gneE12 -gneE5 -gneE2 -gneE1 gneE3"/>
    </vehicle>
    <vehicle id="305" depart="488.00">
        <route edges="gneE21 -gneE7 -gneE6 -gneE4 -gneE3"/>
    </vehicle>
    <vehicle id="306" depart="489.60">
        <route edges="gneE13 gneE25 -gneE24 -gneE18 -gneE17 gneE12 gneE11 -gneE10 gneE9 -gneE8"/>
    </vehicle>
    <vehicle id="307" depart="491.20">
        <route edges="gneE1 gneE8 -gneE9 gneE10 -gneE11 -gneE12 -gneE5"/>
    </vehicle>
    <vehicle id="310" depart="496.00">
        <route edges="-gneE28 gneE21 gneE22 -gneE18 -gneE17"/>
    </vehicle>
    <vehicle id="311" depart="497.60">
        <route edges="-gneE24 -gneE18 -gneE17"/>
    </vehicle>
    <vehicle id="312" depart="499.20">
        <route edges="gneE10 -gneE11 gneE13 gneE25 -gneE24 -gneE22 -gneE21 gneE28"/>
    </vehicle>
</routes>
