<?xml version="1.0" encoding="UTF-8"?>

<!-- generated on 2024-09-22 03:39:01.625090 by randomTrips.py UNKNOWN
  options: -n city1.net.xml -r city1.rou.xml -e 500 -p 1.6
-->

<routes xmlns:xsi="http://www.w3.org/2001/XMLSchema-instance" xsi:noNamespaceSchemaLocation="http://sumo.dlr.de/xsd/routes_file.xsd">
    <trip id="0" depart="0.00" from="gneE18" to="-gneE1"/>
    <trip id="1" depart="1.60" from="-gneE29" to="-gneE23"/>
    <trip id="2" depart="3.20" from="gneE24" to="gneE23"/>
    <trip id="3" depart="4.80" from="gneE39" to="-gneE13"/>
    <trip id="4" depart="6.40" from="-gneE5" to="-gneE1"/>
    <trip id="5" depart="8.00" from="-gneE25" to="gneE1"/>
    <trip id="6" depart="9.60" from="-gneE10" to="-gneE21"/>
    <trip id="7" depart="11.20" from="gneE19" to="gneE11"/>
    <trip id="8" depart="12.80" from="-gneE26" to="gneE14"/>
    <trip id="9" depart="14.40" from="gneE3" to="-gneE0"/>
    <trip id="10" depart="16.00" from="gneE3" to="gneE24"/>
    <trip id="11" depart="17.60" from="-gneE32" to="-gneE19"/>
    <trip id="12" depart="19.20" from="gneE7" to="-gneE32"/>
    <trip id="13" depart="20.80" from="-gneE14" to="-gneE14"/>
    <trip id="14" depart="22.40" from="gneE34" to="gneE17"/>
    <trip id="15" depart="24.00" from="gneE3" to="gneE26"/>
    <trip id="16" depart="25.60" from="gneE10" to="gneE8"/>
    <trip id="17" depart="27.20" from="-gneE36" to="gneE12"/>
    <trip id="18" depart="28.80" from="gneE32" to="gneE18"/>
    <trip id="19" depart="30.40" from="gneE35" to="gneE13"/>
    <trip id="20" depart="32.00" from="gneE22" to="-gneE10"/>
    <trip id="21" depart="33.60" from="-gneE26" to="-gneE28"/>
    <trip id="22" depart="35.20" from="-gneE14" to="-gneE23"/>
    <trip id="23" depart="36.80" from="-gneE17" to="-gneE26"/>
    <trip id="24" depart="38.40" from="gneE18" to="-gneE35"/>
    <trip id="25" depart="40.00" from="-gneE34" to="-gneE22"/>
    <trip id="26" depart="41.60" from="-gneE29" to="gneE5"/>
    <trip id="27" depart="43.20" from="gneE19" to="gneE17"/>
    <trip id="28" depart="44.80" from="-gneE22" to="gneE26"/>
    <trip id="29" depart="46.40" from="-gneE22" to="-gneE38"/>
    <trip id="30" depart="48.00" from="gneE9" to="gneE2"/>
    <trip id="31" depart="49.60" from="gneE11" to="gneE23"/>
    <trip id="32" depart="51.20" from="gneE32" to="gneE29"/>
    <trip id="33" depart="52.80" from="-gneE26" to="-gneE10"/>
    <trip id="34" depart="54.40" from="-gneE31" to="-gneE26"/>
    <trip id="35" depart="56.00" from="-gneE25" to="gneE6"/>
    <trip id="36" depart="57.60" from="gneE38" to="-gneE31"/>
    <trip id="37" depart="59.20" from="gneE19" to="-gneE39"/>
    <trip id="38" depart="60.80" from="gneE4" to="-gneE7"/>
    <trip id="39" depart="62.40" from="-gneE28" to="-gneE24"/>
    <trip id="40" depart="64.00" from="gneE11" to="-gneE25"/>
    <trip id="41" depart="65.60" from="gneE13" to="gneE4"/>
    <trip id="42" depart="67.20" from="-gneE4" to="-gneE23"/>
    <trip id="43" depart="68.80" from="gneE9" to="gneE1"/>
    <trip id="44" depart="70.40" from="-gneE14" to="-gneE11"/>
    <trip id="45" depart="72.00" from="-gneE18" to="gneE2"/>
    <trip id="46" depart="73.60" from="gneE28" to="-gneE5"/>
    <trip id="47" depart="75.20" from="-gneE13" to="-gneE38"/>
    <trip id="48" depart="76.80" from="gneE9" to="gneE10"/>
    <trip id="49" depart="78.40" from="gneE8" to="gneE34"/>
    <trip id="50" depart="80.00" from="-gneE1" to="gneE26"/>
    <trip id="51" depart="81.60" from="gneE20" to="gneE11"/>
    <trip id="52" depart="83.20" from="-gneE29" to="gneE21"/>
    <trip id="53" depart="84.80" from="-gneE18" to="-gneE5"/>
    <trip id="54" depart="86.40" from="-gneE7" to="gneE7"/>
    <trip id="55" depart="88.00" from="gneE38" to="-gneE25"/>
    <trip id="56" depart="89.60" from="gneE0" to="-gneE20"/>
    <trip id="57" depart="91.20" from="gneE4" to="gneE34"/>
    <trip id="58" depart="92.80" from="-gneE30" to="gneE2"/>
    <trip id="59" depart="94.40" from="gneE14" to="-gneE19"/>
    <trip id="60" depart="96.00" from="gneE25" to="gneE11"/>
    <trip id="61" depart="97.60" from="gneE26" to="gneE10"/>
    <trip id="62" depart="99.20" from="-gneE1" to="-gneE31"/>
    <trip id="63" depart="100.80" from="-gneE10" to="gneE5"/>
    <trip id="64" depart="102.40" from="gneE38" to="gneE32"/>
    <trip id="65" depart="104.00" from="-gneE30" to="-gneE11"/>
    <trip id="66" depart="105.60" from="gneE38" to="gneE6"/>
    <trip id="67" depart="107.20" from="-gneE14" to="-gneE9"/>
    <trip id="68" depart="108.80" from="-gneE13" to="gneE28"/>
    <trip id="69" depart="110.40" from="gneE26" to="-gneE18"/>
    <trip id="70" depart="112.00" from="-gneE8" to="gneE12"/>
    <trip id="71" depart="113.60" from="-gneE28" to="gneE34"/>
    <trip id="72" depart="115.20" from="-gneE5" to="-gneE22"/>
    <trip id="73" depart="116.80" from="gneE10" to="gneE26"/>
    <trip id="74" depart="118.40" from="-gneE24" to="-gneE3"/>
    <trip id="75" depart="120.00" from="gneE9" to="gneE21"/>
    <trip id="76" depart="121.60" from="-gneE6" to="gneE10"/>
    <trip id="77" depart="123.20" from="-gneE18" to="-gneE23"/>
    <trip id="78" depart="124.80" from="-gneE32" to="gneE14"/>
    <trip id="79" depart="126.40" from="-gneE26" to="-gneE23"/>
    <trip id="80" depart="128.00" from="-gneE13" to="gneE2"/>
    <trip id="81" depart="129.60" from="-gneE26" to="gneE4"/>
    <trip id="82" depart="131.20" from="gneE35" to="-gneE12"/>
    <trip id="83" depart="132.80" from="-gneE27" to="gneE22"/>
    <trip id="84" depart="134.40" from="-gneE25" to="-gneE18"/>
    <trip id="85" depart="136.00" from="gneE5" to="gneE13"/>
    <trip id="86" depart="137.60" from="-gneE8" to="gneE3"/>
    <trip id="87" depart="139.20" from="gneE3" to="-gneE21"/>
    <trip id="88" depart="140.80" from="-gneE17" to="-gneE5"/>
    <trip id="89" depart="142.40" from="-gneE5" to="-gneE7"/>
    <trip id="90" depart="144.00" from="gneE23" to="gneE23"/>
    <trip id="91" depart="145.60" from="gneE8" to="-gneE14"/>
    <trip id="92" depart="147.20" from="-gneE4" to="-gneE32"/>
    <trip id="93" depart="148.80" from="gneE35" to="-gneE24"/>
    <trip id="94" depart="150.40" from="-gneE24" to="-gneE6"/>
    <trip id="95" depart="152.00" from="-gneE5" to="-gneE26"/>
    <trip id="96" depart="153.60" from="-gneE27" to="gneE5"/>
    <trip id="97" depart="155.20" from="-gneE6" to="gneE34"/>
    <trip id="98" depart="156.80" from="gneE11" to="-gneE11"/>
    <trip id="99" depart="158.40" from="gneE9" to="gneE32"/>
    <trip id="100" depart="160.00" from="gneE8" to="gneE5"/>
    <trip id="101" depart="161.60" from="gneE34" to="-gneE2"/>
    <trip id="102" depart="163.20" from="-gneE9" to="-gneE22"/>
    <trip id="103" depart="164.80" from="-gneE4" to="-gneE11"/>
    <trip id="104" depart="166.40" from="-gneE36" to="gneE9"/>
    <trip id="105" depart="168.00" from="-gneE28" to="gneE3"/>
    <trip id="106" depart="169.60" from="-gneE7" to="-gneE5"/>
    <trip id="107" depart="171.20" from="gneE7" to="gneE9"/>
    <trip id="108" depart="172.80" from="gneE11" to="gneE25"/>
    <trip id="109" depart="174.40" from="-gneE21" to="-gneE28"/>
    <trip id="110" depart="176.00" from="gneE7" to="gneE14"/>
    <trip id="111" depart="177.60" from="gneE10" to="gneE27"/>
    <trip id="112" depart="179.20" from="-gneE12" to="gneE14"/>
    <trip id="113" depart="180.80" from="gneE0" to="gneE33"/>
    <trip id="114" depart="182.40" from="-gneE22" to="gneE7"/>
    <trip id="115" depart="184.00" from="-gneE14" to="-gneE20"/>
    <trip id="116" depart="185.60" from="gneE14" to="gneE23"/>
    <trip id="117" depart="187.20" from="-gneE27" to="-gneE17"/>
    <trip id="118" depart="188.80" from="gneE38" to="-gneE24"/>
    <trip id="119" depart="190.40" from="gneE14" to="gneE18"/>
    <trip id="120" depart="192.00" from="-gneE40" to="gneE14"/>
    <trip id="121" depart="193.60" from="gneE1" to="gneE5"/>
    <trip id="122" depart="195.20" from="-gneE25" to="gneE25"/>
    <trip id="123" depart="196.80" from="-gneE27" to="-gneE39"/>
    <trip id="124" depart="198.40" from="gneE2" to="-gneE3"/>
    <trip id="125" depart="200.00" from="-gneE31" to="gneE28"/>
    <trip id="126" depart="201.60" from="-gneE13" to="-gneE7"/>
    <trip id="127" depart="203.20" from="gneE9" to="gneE9"/>
    <trip id="128" depart="204.80" from="-gneE13" to="-gneE22"/>
    <trip id="129" depart="206.40" from="-gneE28" to="gneE5"/>
    <trip id="130" depart="208.00" from="gneE38" to="gneE36"/>
    <trip id="131" depart="209.60" from="-gneE34" to="-gneE2"/>
    <trip id="132" depart="211.20" from="gneE32" to="gneE25"/>
    <trip id="133" depart="212.80" from="gneE17" to="gneE9"/>
    <trip id="134" depart="214.40" from="gneE19" to="-gneE0"/>
    <trip id="135" depart="216.00" from="gneE31" to="-gneE3"/>
    <trip id="136" depart="217.60" from="gneE2" to="gneE6"/>
    <trip id="137" depart="219.20" from="-gneE2" to="-gneE17"/>
    <trip id="138" depart="220.80" from="-gneE17" to="gneE12"/>
    <trip id="139" depart="222.40" from="-gneE29" to="gneE17"/>
    <trip id="140" depart="224.00" from="gneE22" to="-gneE22"/>
    <trip id="141" depart="225.60" from="gneE18" to="-gneE25"/>
    <trip id="142" depart="227.20" from="-gneE9" to="gneE4"/>
    <trip id="143" depart="228.80" from="gneE34" to="-gneE13"/>
    <trip id="144" depart="230.40" from="-gneE5" to="-gneE26"/>
    <trip id="145" depart="232.00" from="-gneE1" to="gneE29"/>
    <trip id="146" depart="233.60" from="gneE18" to="-gneE25"/>
    <trip id="147" depart="235.20" from="gneE24" to="gneE12"/>
    <trip id="148" depart="236.80" from="-gneE5" to="-gneE0"/>
    <trip id="149" depart="238.40" from="-gneE13" to="gneE36"/>
    <trip id="150" depart="240.00" from="gneE39" to="gneE11"/>
    <trip id="151" depart="241.60" from="gneE32" to="gneE14"/>
    <trip id="152" depart="243.20" from="-gneE21" to="-gneE18"/>
    <trip id="153" depart="244.80" from="-gneE30" to="gneE4"/>
    <trip id="154" depart="246.40" from="gneE28" to="gneE34"/>
    <trip id="155" depart="248.00" from="gneE39" to="-gneE22"/>
    <trip id="156" depart="249.60" from="-gneE27" to="-gneE14"/>
    <trip id="157" depart="251.20" from="gneE26" to="gneE36"/>
    <trip id="158" depart="252.80" from="-gneE40" to="gneE18"/>
    <trip id="159" depart="254.40" from="-gneE21" to="gneE5"/>
    <trip id="160" depart="256.00" from="gneE35" to="gneE8"/>
    <trip id="161" depart="257.60" from="gneE3" to="gneE36"/>
    <trip id="162" depart="259.20" from="-gneE10" to="gneE27"/>
    <trip id="163" depart="260.80" from="-gneE32" to="gneE5"/>
    <trip id="164" depart="262.40" from="gneE3" to="gneE34"/>
    <trip id="165" depart="264.00" from="gneE3" to="-gneE26"/>
    <trip id="166" depart="265.60" from="gneE28" to="-gneE14"/>
    <trip id="167" depart="267.20" from="gneE35" to="gneE33"/>
    <trip id="168" depart="268.80" from="-gneE26" to="gneE31"/>
    <trip id="169" depart="270.40" from="-gneE7" to="-gneE3"/>
    <trip id="170" depart="272.00" from="gneE28" to="-gneE23"/>
    <trip id="171" depart="273.60" from="-gneE10" to="-gneE21"/>
    <trip id="172" depart="275.20" from="-gneE32" to="gneE34"/>
    <trip id="173" depart="276.80" from="gneE7" to="-gneE26"/>
    <trip id="174" depart="278.40" from="gneE19" to="-gneE39"/>
    <trip id="175" depart="280.00" from="gneE8" to="gneE11"/>
    <trip id="176" depart="281.60" from="gneE6" to="-gneE17"/>
    <trip id="177" depart="283.20" from="gneE8" to="-gneE20"/>
    <trip id="178" depart="284.80" from="gneE7" to="-gneE25"/>
    <trip id="179" depart="286.40" from="-gneE17" to="-gneE5"/>
    <trip id="180" depart="288.00" from="gneE23" to="-gneE31"/>
    <trip id="181" depart="289.60" from="gneE14" to="gneE1"/>
    <trip id="182" depart="291.20" from="-gneE36" to="gneE13"/>
    <trip id="183" depart="292.80" from="-gneE28" to="gneE25"/>
    <trip id="184" depart="294.40" from="-gneE1" to="gneE5"/>
    <trip id="185" depart="296.00" from="gneE10" to="gneE26"/>
    <trip id="186" depart="297.60" from="gneE24" to="gneE22"/>
    <trip id="187" depart="299.20" from="-gneE34" to="-gneE12"/>
    <trip id="188" depart="300.80" from="gneE2" to="-gneE32"/>
    <trip id="189" depart="302.40" from="-gneE31" to="gneE33"/>
    <trip id="190" depart="304.00" from="gneE23" to="-gneE3"/>
    <trip id="191" depart="305.60" from="-gneE30" to="-gneE4"/>
    <trip id="192" depart="307.20" from="-gneE4" to="-gneE28"/>
    <trip id="193" depart="308.80" from="-gneE2" to="-gneE4"/>
    <trip id="194" depart="310.40" from="gneE6" to="gneE23"/>
    <trip id="195" depart="312.00" from="gneE39" to="gneE18"/>
    <trip id="196" depart="313.60" from="-gneE30" to="gneE12"/>
    <trip id="197" depart="315.20" from="-gneE1" to="-gneE28"/>
    <trip id="198" depart="316.80" from="-gneE5" to="gneE14"/>
    <trip id="199" depart="318.40" from="gneE19" to="-gneE7"/>
    <trip id="200" depart="320.00" from="-gneE6" to="-gneE22"/>
    <trip id="201" depart="321.60" from="-gneE8" to="gneE4"/>
    <trip id="202" depart="323.20" from="gneE28" to="-gneE2"/>
    <trip id="203" depart="324.80" from="-gneE14" to="gneE1"/>
    <trip id="204" depart="326.40" from="gneE18" to="-gneE32"/>
    <trip id="205" depart="328.00" from="gneE31" to="gneE28"/>
    <trip id="206" depart="329.60" from="gneE20" to="-gneE23"/>
    <trip id="207" depart="331.20" from="-gneE24" to="-gneE1"/>
    <trip id="208" depart="332.80" from="-gneE27" to="-gneE8"/>
    <trip id="209" depart="334.40" from="gneE34" to="-gneE12"/>
    <trip id="210" depart="336.00" from="-gneE40" to="gneE2"/>
    <trip id="211" depart="337.60" from="-gneE24" to="gneE24"/>
    <trip id="212" depart="339.20" from="-gneE9" to="-gneE24"/>
    <trip id="213" depart="340.80" from="gneE19" to="-gneE0"/>
    <trip id="214" depart="342.40" from="gneE25" to="gneE29"/>
    <trip id="215" depart="344.00" from="-gneE17" to="-gneE5"/>
    <trip id="216" depart="345.60" from="-gneE23" to="gneE7"/>
    <trip id="217" depart="347.20" from="gneE1" to="-gneE11"/>
    <trip id="218" depart="348.80" from="-gneE27" to="gneE33"/>
    <trip id="219" depart="350.40" from="-gneE7" to="gneE30"/>
    <trip id="220" depart="352.00" from="gneE2" to="gneE9"/>
    <trip id="221" depart="353.60" from="gneE14" to="gneE6"/>
    <trip id="222" depart="355.20" from="gneE39" to="gneE18"/>
    <trip id="223" depart="356.80" from="gneE23" to="gneE1"/>
    <trip id="224" depart="358.40" from="gneE32" to="gneE12"/>
    <trip id="225" depart="360.00" from="gneE39" to="gneE27"/>
    <trip id="226" depart="361.60" from="-gneE8" to="-gneE25"/>
    <trip id="227" depart="363.20" from="-gneE27" to="gneE2"/>
    <trip id="228" depart="364.80" from="gneE26" to="gneE10"/>
    <trip id="229" depart="366.40" from="gneE18" to="-gneE26"/>
    <trip id="230" depart="368.00" from="-gneE13" to="-gneE28"/>
    <trip id="231" depart="369.60" from="-gneE29" to="-gneE31"/>
    <trip id="232" depart="371.20" from="gneE10" to="-gneE18"/>
    <trip id="233" depart="372.80" from="-gneE26" to="gneE24"/>
    <trip id="234" depart="374.40" from="gneE22" to="-gneE12"/>
    <trip id="235" depart="376.00" from="-gneE40" to="gneE11"/>
    <trip id="236" depart="377.60" from="-gneE40" to="-gneE22"/>
    <trip id="237" depart="379.20" from="-gneE40" to="gneE4"/>
    <trip id="238" depart="380.80" from="gneE13" to="gneE24"/>
    <trip id="239" depart="382.40" from="gneE34" to="gneE28"/>
    <trip id="240" depart="384.00" from="-gneE36" to="-gneE0"/>
    <trip id="241" depart="385.60" from="-gneE33" to="gneE28"/>
    <trip id="242" depart="387.20" from="gneE34" to="gneE7"/>
    <trip id="243" depart="388.80" from="-gneE40" to="gneE27"/>
    <trip id="244" depart="390.40" from="gneE10" to="gneE17"/>
    <trip id="245" depart="392.00" from="-gneE26" to="-gneE23"/>
    <trip id="246" depart="393.60" from="-gneE5" to="-gneE1"/>
    <trip id="247" depart="395.20" from="-gneE32" to="gneE23"/>
    <trip id="248" depart="396.80" from="-gneE4" to="-gneE2"/>
    <trip id="249" depart="398.40" from="-gneE7" to="-gneE18"/>
    <trip id="250" depart="400.00" from="gneE17" to="-gneE1"/>
    <trip id="251" depart="401.60" from="-gneE4" to="gneE13"/>
    <trip id="252" depart="403.20" from="-gneE10" to="gneE21"/>
    <trip id="253" depart="404.80" from="-gneE2" to="-gneE7"/>
    <trip id="254" depart="406.40" from="-gneE12" to="-gneE38"/>
    <trip id="255" depart="408.00" from="-gneE25" to="-gneE31"/>
    <trip id="256" depart="409.60" from="gneE25" to="-gneE38"/>
    <trip id="257" depart="411.20" from="gneE25" to="gneE32"/>
    <trip id="258" depart="412.80" from="-gneE28" to="-gneE13"/>
    <trip id="259" depart="414.40" from="-gneE10" to="gneE11"/>
    <trip id="260" depart="416.00" from="gneE9" to="-gneE34"/>
    <trip id="261" depart="417.60" from="gneE19" to="gneE29"/>
    <trip id="262" depart="419.20" from="gneE19" to="gneE28"/>
    <trip id="263" depart="420.80" from="gneE6" to="-gneE21"/>
    <trip id="264" depart="422.40" from="-gneE10" to="-gneE19"/>
    <trip id="265" depart="424.00" from="-gneE2" to="gneE22"/>
    <trip id="266" depart="425.60" from="gneE12" to="-gneE22"/>
    <trip id="267" depart="427.20" from="gneE21" to="gneE29"/>
    <trip id="268" depart="428.80" from="-gneE22" to="gneE17"/>
    <trip id="269" depart="430.40" from="gneE24" to="-gneE17"/>
    <trip id="270" depart="432.00" from="gneE31" to="gneE7"/>
    <trip id="271" depart="433.60" from="-gneE17" to="-gneE1"/>
    <trip id="272" depart="435.20" from="-gneE30" to="gneE23"/>
    <trip id="273" depart="436.80" from="gneE7" to="-gneE39"/>
    <trip id="274" depart="438.40" from="gneE22" to="-gneE12"/>
    <trip id="275" depart="440.00" from="gneE21" to="gneE2"/>
    <trip id="276" depart="441.60" from="-gneE17" to="gneE29"/>
    <trip id="277" depart="443.20" from="gneE34" to="gneE17"/>
    <trip id="278" depart="444.80" from="-gneE18" to="gneE8"/>
    <trip id="279" depart="446.40" from="gneE28" to="-gneE34"/>
    <trip id="280" depart="448.00" from="-gneE5" to="-gneE35"/>
    <trip id="281" depart="449.60" from="gneE0" to="-gneE32"/>
    <trip id="282" depart="451.20" from="gneE34" to="gneE31"/>
    <trip id="283" depart="452.80" from="-gneE17" to="gneE7"/>
    <trip id="284" depart="454.40" from="gneE18" to="gneE32"/>
    <trip id="285" depart="456.00" from="gneE22" to="-gneE5"/>
    <trip id="286" depart="457.60" from="gneE23" to="gneE7"/>
    <trip id="287" depart="459.20" from="-gneE29" to="gneE30"/>
    <trip id="288" depart="460.80" from="gneE10" to="-gneE8"/>
    <trip id="289" depart="462.40" from="-gneE5" to="gneE26"/>
    <trip id="290" depart="464.00" from="-gneE29" to="gneE33"/>
    <trip id="291" depart="465.60" from="gneE32" to="-gneE13"/>
    <trip id="292" depart="467.20" from="gneE38" to="-gneE24"/>
    <trip id="293" depart="468.80" from="-gneE7" to="gneE18"/>
    <trip id="294" depart="470.40" from="-gneE36" to="-gneE1"/>
    <trip id="295" depart="472.00" from="gneE34" to="-gneE20"/>
    <trip id="296" depart="473.60" from="-gneE25" to="gneE30"/>
    <trip id="297" depart="475.20" from="-gneE32" to="gneE36"/>
    <trip id="298" depart="476.80" from="gneE21" to="-gneE26"/>
    <trip id="299" depart="478.40" from="-gneE1" to="gneE6"/>
    <trip id="300" depart="480.00" from="-gneE14" to="gneE26"/>
    <trip id="301" depart="481.60" from="-gneE9" to="gneE28"/>
    <trip id="302" depart="483.20" from="gneE21" to="gneE21"/>
    <trip id="303" depart="484.80" from="-gneE9" to="gneE3"/>
    <trip id="304" depart="486.40" from="-gneE14" to="-gneE23"/>
    <trip id="305" depart="488.00" from="gneE21" to="-gneE3"/>
    <trip id="306" depart="489.60" from="gneE13" to="-gneE8"/>
    <trip id="307" depart="491.20" from="gneE1" to="-gneE5"/>
    <trip id="308" depart="492.80" from="gneE24" to="-gneE32"/>
    <trip id="309" depart="494.40" from="gneE21" to="-gneE26"/>
    <trip id="310" depart="496.00" from="-gneE28" to="-gneE17"/>
    <trip id="311" depart="497.60" from="-gneE24" to="-gneE17"/>
    <trip id="312" depart="499.20" from="gneE10" to="gneE28"/>
</routes>
